*Heading
*Preprint, echo=NO, model=NO, history=NO, contact=NO
**  ----------------------------------------------------------  **
*Node, nset=node_all
1	,	0	,	0	,	0
2	,	1	,	0	,	0
3	,	2	,	0	,	0
4	,	3	,	0	,	0
5	,	4	,	0	,	0
6	,	5	,	0	,	0
7	,	6	,	0	,	0
8	,	7	,	0	,	0
9	,	8	,	0	,	0
10	,	9	,	0	,	0
11	,	10	,	0	,	0
12	,	11	,	0	,	0
13	,	12	,	0	,	0
14	,	13	,	0	,	0
15	,	14	,	0	,	0
16	,	15	,	0	,	0
17	,	16	,	0	,	0
18	,	17	,	0	,	0
19	,	18	,	0	,	0
20	,	19	,	0	,	0
** ... 91 like lines cut
**  ----------------------------------------------------------  **
*Element, type=T3D2, elset=Set-1
1	,	1	,	2
2	,	2	,	3
3	,	3	,	4
4	,	4	,	5
5	,	5	,	6
6	,	6	,	7
7	,	7	,	8
8	,	8	,	9
9	,	9	,	10
10	,	10	,	11
11	,	11	,	12
12	,	12	,	13
13	,	13	,	14
14	,	14	,	15
15	,	15	,	16
16	,	16	,	17
17	,	17	,	18
18	,	18	,	19
19	,	19	,	20
20	,	20	,	21
** ... 90 like lines cut
**  ----------------------------------------------------------  **
*User Element, Nodes=2, Type=VU2, Properties=4, Coordinates=3, Variables=16
   	 11
*Element, Type=VU2
10001	,	1	,	2
10002	,	2	,	3
10003	,	3	,	4
10004	,	4	,	5
10005	,	5	,	6
10006	,	6	,	7
10007	,	7	,	8
10008	,	8	,	9
10009	,	9	,	10
10010	,	10	,	11
10011	,	11	,	12
10012	,	12	,	13
10013	,	13	,	14
10014	,	14	,	15
10015	,	15	,	16
10016	,	16	,	17
10017	,	17	,	18
10018	,	18	,	19
10019	,	19	,	20
10020	,	20	,	21
** ... 90 like lines cut
*Elset, elset=vuel_ele_1, generate
  10001,  10050,   1
  10061,  10110,   1  
*Elset, elset=vuel_ele_2, generate
  10051,  10060,   1   
*Uel Property, Elset=vuel_ele_1
	30000,  4.0,  0.01, 10.0
*Uel Property, Elset=vuel_ele_2
	30000,  3.8,  0.01, 10.0
** ea, ft, gf, lb
**  ----------------------------------------------------------  **
***Elset, elset=Set-1, generate
**  1,  100,   1
**  ----------------------------------------------------------  **  
** Section: Section-1
*Solid Section, elset=Set-1, material=MAT1
  1.0
**  ----------------------------------------------------------  **
** 
** 
*Material, name=MAT1
*Density
	1e-6
*Depvar, delete=16
     16,
     1,  E_Total, "total strain"
     11, PHI_A, "Phi plus (Model A)"
     14, H, "History variable"
     15, d, "phase field variable"
*User Defined Field
*User Material, constants=3
	30000,  3.8,  0.01, 10.0
** ea, ft, gf, lb
**  ----------------------------------------------------------  **
**
** PREDEFINED FIELDS
** 
** Name: Predefined Field-1   Type: Void ratio
*Initial Conditions, type=field, variable=1
	node_all, 0.0
**  ----------------------------------------------------------  **	
** 
**
**  ----------------------------------------------------------  **
*Nset, nset=Set-1
  1
*Nset, nset=Set-2
 111
**  ----------------------------------------------------------  **
*Amplitude, name=Amp-1
             0.,              0.,            10,              0.05
**  ----------------------------------------------------------  **
*Boundary
Set-1, 1, 1
Set-1, 2, 2
Set-1, 3, 3
Set-2, 2, 2
Set-2, 3, 3
**  ----------------------------------------------------------  **
** 
** STEP: Step-1
** 
*Step, name=Step-1, nlgeom=YES
***Dynamic, Explicit
*Dynamic Temperature-displacement, Explicit
	, 10
*Bulk Viscosity
	0.06, 1.2
** 
** BOUNDARY CONDITIONS
** 
** Name: BC-2 Type: Displacement/Rotation
*Boundary, amplitude=Amp-1
	Set-2, 1, 1, 1
**
**
*FIELD, VARIABLE=1, USER
	node_all
** 
** OUTPUT REQUESTS
** 
*Restart, write, number interval=1, time marks=NO
** 
** FIELD OUTPUT: F-Output-1
** 
*Output, field, time interval=0.1
*Node Output
	NT, U, RF
*Element Output, directions=YES
	FV, HFL, LE, PE, PEEQ, PEEQVAVG, PEVAVG, S, SDV, TEMP
** 
** HISTORY OUTPUT: H-Output-1
** 
*Output, history, variable=PRESELECT,time interval=0.1
*End Step
