*Heading
*Preprint, echo=NO, model=NO, history=NO, contact=NO
**  ----------------------------------------------------------  **
*Node, nset=node_all
1	,	-40.70964425	,	4.319247472
2	,	31.12778396	,	-17.31114069
3	,	-25.74119137	,	4.533963978
4	,	-15.35384845	,	2.456629104
5	,	-23.77822292	,	44.29597337
6	,	-10.65381824	,	79.7686887
7	,	35.90766568	,	25.32932809
8	,	15.01557927	,	-16.72004394
9	,	-23.50810827	,	-12.02258173
10	,	-45.14725833	,	-40.14848157
11	,	-7.075519149	,	-9.76544811
12	,	-53.94553021	,	74.85284456
13	,	34.33574785	,	-17.52272749
14	,	-14.73434952	,	73.34208751
15	,	25.19072516	,	-10.42674453
16	,	-30.6830468	,	25.60017653
17	,	-6.016927925	,	60.64280158
18	,	49.16588166	,	6.520428102
19	,	41.63078197	,	15.77093643
20	,	48.26515354	,	77.65247349
** ... 2366 like lines cut
**  ----------------------------------------------------------  **
*Element,Type=T3D2, elset=truss
1	,	2	,	132
2	,	2	,	147
3	,	2	,	382
4	,	3	,	356
5	,	3	,	965
6	,	3	,	1043
7	,	3	,	1241
8	,	3	,	2106
9	,	3	,	2298
10	,	4	,	30
11	,	4	,	1181
12	,	4	,	1490
13	,	4	,	1668
14	,	4	,	1849
15	,	4	,	2162
16	,	5	,	524
17	,	5	,	934
18	,	5	,	1134
19	,	5	,	1369
20	,	5	,	1508
** ... 4766 like lines cut
**  ----------------------------------------------------------  **
*User Element, Nodes=2, Type=VU2, Properties=5, Coordinates=2, Variables=20
	1, 2, 11
*Element, Type=VU2
10001	,	2	,	132
10002	,	2	,	147
10003	,	2	,	382
10004	,	3	,	356
10005	,	3	,	965
10006	,	3	,	1043
10007	,	3	,	1241
10008	,	3	,	2106
10009	,	3	,	2298
10010	,	4	,	30
10011	,	4	,	1181
10012	,	4	,	1490
10013	,	4	,	1668
10014	,	4	,	1849
10015	,	4	,	2162
10016	,	5	,	524
10017	,	5	,	934
10018	,	5	,	1134
10019	,	5	,	1369
10020	,	5	,	1508
** ... 4766 like lines cut
**  ----------------------------------------------------------  ** 
*Elset, elset=fracture
10001	,	10002	,	10003	,	10004	,	10005	,	10006	,	10007	,	10008	,	10009	,	10010	,	10011	,	10012	,	10013	,	10014	,	10015	,	10016
10018	,	10019	,	10023	,	10024	,	10025	,	10026	,	10027	,	10028	,	10029	,	10030	,	10031	,	10032	,	10033	,	10034	,	10035	,	10036
10037	,	10038	,	10039	,	10040	,	10041	,	10048	,	10049	,	10050	,	10051	,	10052	,	10053	,	10054	,	10055	,	10056	,	10057	,	10058
10059	,	10073	,	10074	,	10075	,	10076	,	10077	,	10078	,	10079	,	10080	,	10081	,	10082	,	10083	,	10097	,	10098	,	10099	,	10100
10101	,	10112	,	10113	,	10114	,	10115	,	10116	,	10117	,	10118	,	10119	,	10120	,	10121	,	10122	,	10123	,	10124	,	10125	,	10126
10127	,	10128	,	10129	,	10130	,	10131	,	10132	,	10133	,	10134	,	10135	,	10136	,	10137	,	10138	,	10139	,	10140	,	10141	,	10142
10146	,	10147	,	10148	,	10149	,	10150	,	10151	,	10152	,	10158	,	10159	,	10163	,	10173	,	10174	,	10175	,	10176	,	10177	,	10178
10179	,	10180	,	10181	,	10182	,	10183	,	10184	,	10185	,	10186	,	10187	,	10188	,	10189	,	10190	,	10191	,	10192	,	10193	,	10194
10195	,	10196	,	10197	,	10198	,	10212	,	10213	,	10214	,	10215	,	10216	,	10217	,	10218	,	10219	,	10220	,	10221	,	10222	,	10223
10230	,	10231	,	10232	,	10233	,	10234	,	10235	,	10236	,	10255	,	10256	,	10257	,	10258	,	10259	,	10260	,	10261	,	10269	,	10270
10271	,	10272	,	10273	,	10274	,	10291	,	10292	,	10293	,	10294	,	10295	,	10296	,	10297	,	10298	,	10299	,	10300	,	10301	,	10302
10303	,	10304	,	10305	,	10306	,	10307	,	10308	,	10309	,	10313	,	10316	,	10317	,	10318	,	10319	,	10320	,	10321	,	10322	,	10323
10330	,	10331	,	10332	,	10333	,	10337	,	10338	,	10339	,	10340	,	10341	,	10366	,	10367	,	10368	,	10369	,	10370	,	10379	,	10380
10381	,	10382	,	10389	,	10390	,	10391	,	10392	,	10393	,	10394	,	10411	,	10412	,	10413	,	10414	,	10415	,	10416	,	10453	,	10454
10455	,	10456	,	10457	,	10458	,	10459	,	10460	,	10461	,	10462	,	10463	,	10464	,	10467	,	10470	,	10480	,	10481	,	10482	,	10483
10484	,	10493	,	10494	,	10495	,	10496	,	10503	,	10505	,	10507	,	10508	,	10509	,	10510	,	10511	,	10512	,	10518	,	10519	,	10520
10521	,	10522	,	10523	,	10531	,	10532	,	10533	,	10534	,	10535	,	10536	,	10537	,	10538	,	10539	,	10540	,	10541	,	10542	,	10543
10544	,	10545	,	10546	,	10547	,	10548	,	10549	,	10550	,	10551	,	10552	,	10553	,	10557	,	10558	,	10559	,	10560	,	10561	,	10562
10573	,	10574	,	10575	,	10576	,	10579	,	10580	,	10582	,	10583	,	10584	,	10585	,	10586	,	10587	,	10588	,	10589	,	10590	,	10591
10592	,	10593	,	10594	,	10595	,	10596	,	10597	,	10598	,	10599	,	10600	,	10601	,	10608	,	10609	,	10610	,	10611	,	10612	,	10623
** ... 113 like lines cut
*Elset, elset=utruss
10017	,	10020	,	10021	,	10022	,	10042	,	10043	,	10044	,	10045	,	10046	,	10047	,	10060	,	10061	,	10062	,	10063	,	10064	,	10065
10066	,	10067	,	10068	,	10069	,	10070	,	10071	,	10072	,	10084	,	10085	,	10086	,	10087	,	10088	,	10089	,	10090	,	10091	,	10092
10093	,	10094	,	10095	,	10096	,	10102	,	10103	,	10104	,	10105	,	10106	,	10107	,	10108	,	10109	,	10110	,	10111	,	10143	,	10144
10145	,	10153	,	10154	,	10155	,	10156	,	10157	,	10160	,	10161	,	10162	,	10164	,	10165	,	10166	,	10167	,	10168	,	10169	,	10170
10171	,	10172	,	10199	,	10200	,	10201	,	10202	,	10203	,	10204	,	10205	,	10206	,	10207	,	10208	,	10209	,	10210	,	10211	,	10224
10225	,	10226	,	10227	,	10228	,	10229	,	10237	,	10238	,	10239	,	10240	,	10241	,	10242	,	10243	,	10244	,	10245	,	10246	,	10247
10248	,	10249	,	10250	,	10251	,	10252	,	10253	,	10254	,	10262	,	10263	,	10264	,	10265	,	10266	,	10267	,	10268	,	10275	,	10276
10277	,	10278	,	10279	,	10280	,	10281	,	10282	,	10283	,	10284	,	10285	,	10286	,	10287	,	10288	,	10289	,	10290	,	10310	,	10311
10312	,	10314	,	10315	,	10324	,	10325	,	10326	,	10327	,	10328	,	10329	,	10334	,	10335	,	10336	,	10342	,	10343	,	10344	,	10345
10346	,	10347	,	10348	,	10349	,	10350	,	10351	,	10352	,	10353	,	10354	,	10355	,	10356	,	10357	,	10358	,	10359	,	10360	,	10361
10362	,	10363	,	10364	,	10365	,	10371	,	10372	,	10373	,	10374	,	10375	,	10376	,	10377	,	10378	,	10383	,	10384	,	10385	,	10386
10387	,	10388	,	10395	,	10396	,	10397	,	10398	,	10399	,	10400	,	10401	,	10402	,	10403	,	10404	,	10405	,	10406	,	10407	,	10408
10409	,	10410	,	10417	,	10418	,	10419	,	10420	,	10421	,	10422	,	10423	,	10424	,	10425	,	10426	,	10427	,	10428	,	10429	,	10430
10431	,	10432	,	10433	,	10434	,	10435	,	10436	,	10437	,	10438	,	10439	,	10440	,	10441	,	10442	,	10443	,	10444	,	10445	,	10446
10447	,	10448	,	10449	,	10450	,	10451	,	10452	,	10465	,	10466	,	10468	,	10469	,	10471	,	10472	,	10473	,	10474	,	10475	,	10476
10477	,	10478	,	10479	,	10485	,	10486	,	10487	,	10488	,	10489	,	10490	,	10491	,	10492	,	10497	,	10498	,	10499	,	10500	,	10501
10502	,	10504	,	10506	,	10513	,	10514	,	10515	,	10516	,	10517	,	10524	,	10525	,	10526	,	10527	,	10528	,	10529	,	10530	,	10554
10555	,	10556	,	10563	,	10564	,	10565	,	10566	,	10567	,	10568	,	10569	,	10570	,	10571	,	10572	,	10577	,	10578	,	10581	,	10602
10603	,	10604	,	10605	,	10606	,	10607	,	10613	,	10614	,	10615	,	10616	,	10617	,	10618	,	10619	,	10620	,	10621	,	10622	,	10629
10630	,	10631	,	10632	,	10633	,	10645	,	10646	,	10647	,	10648	,	10649	,	10650	,	10651	,	10652	,	10653	,	10654	,	10655	,	10664
** ... 147 like lines cut
**  ----------------------------------------------------------  ** 
*Uel Property, Elset=fracture
	30000, 3.4, 0.01,  10, 1
*Uel Property, Elset=utruss
	30000, 400, 0.025, 10, 2
** <ES>, <FT>, <GF>, <LB>
**  ----------------------------------------------------------  **  
** Section: Section-1
*Solid Section, elset=truss, material=truss
	1
**  ----------------------------------------------------------  **
*Material, name=truss
*Density
	1e-4
*Depvar, delete=16
     16,
     1,  E_Total, "total strain"
     11, PHI_A, "Phi plus (Model A)"
     14, H, "History variable"
     15, d, "phase field variable"
*User Defined Field
*User Material, constants=3
	30000,  3.8,  0.01, 10.0
** ea, ft, gf, lb
**  ----------------------------------------------------------  **
**
** PREDEFINED FIELDS
** 
** Name: Predefined Field-1   Type: Void ratio
*Initial Conditions, type=field, variable=1
	node_all, 0.0
**  ----------------------------------------------------------  **	
** 
**
**  ----------------------------------------------------------  **
*Nset, nset=bottom
   29,   32,   34,   87,  104,  121,  128,  141,  267,  334,  368,  410,  507,  646,  654,  731
  747,  757,  974, 1011, 1127, 1148, 1218, 1298, 1330, 1358, 1375, 1416, 1460, 1483, 1613, 1624
 1670, 1718, 1748, 1764, 1805, 1913, 1924, 2004, 2023, 2128, 2146, 2205, 2242, 2256, 2260, 2265
 2282
*Nset, nset=top
   14,   22,   47,   54,   70,  109,  145,  158,  163,  203,  243,  249,  344,  358,  367,  424
  445,  523,  544,  549,  553,  554,  560,  578,  599,  601,  636,  653,  701,  705,  714,  742
  759,  811,  825,  902,  911,  926, 1000, 1025, 1034, 1078, 1080, 1081, 1092, 1195, 1254, 1313
 1322, 1353, 1373, 1402, 1419, 1527, 1541, 1635, 1669, 1683, 1723, 1730, 1774, 1783, 1792, 1796
 1799, 1813, 1833, 1883, 1920, 1959, 1964, 1987, 1993, 2024, 2048, 2123, 2130, 2187, 2231, 2245
 2249, 2281, 2285, 2295, 2301, 2332, 2349 
**  ----------------------------------------------------------  **
*Node
	10001, 0, 500
*Nset, nset=node_ref
	10001
*MPC
	BEAM, top, node_ref
**  ----------------------------------------------------------  **
*Amplitude, name=Amp-1
             0.,              0.,            1,              0.003
*Amplitude, name=Amp-2
             0.,             0.003,           5,              0.01
*Amplitude, name=Amp-3
             0.,             0.01,           10,             0.04
*Amplitude, name=Amp-4
             0.,             0.04,            20,             0.1
**  ----------------------------------------------------------  **
*Boundary
bottom, 1, 1
bottom, 2, 2
bottom, 3, 3
node_ref, 1, 1
**top, 3, 3
**  ----------------------------------------------------------  **
** 
** STEP: Step-1
** 
*Step, name=Step-1, nlgeom=YES
***Dynamic, Explicit
*Dynamic Temperature-displacement, Explicit
	, 0.001
*Bulk Viscosity
	0.6, 1.2
** 
** BOUNDARY CONDITIONS
** 
** OUTPUT REQUESTS
** 
*Restart, write, number interval=1, time marks=NO
** 
** FIELD OUTPUT: F-Output-1
** 
*Output, field, time interval=0.001
*Node Output
	NT, U, RF
*Element Output, directions=YES
	FV, HFL, LE, PE, PEEQ, PEEQVAVG, PEVAVG, S, SDV, TEMP
** 
** HISTORY OUTPUT: H-Output-1
** 
*Output, history, variable=PRESELECT,time interval=0.001
*End Step
**  ----------------------------------------------------------  **
** 
** STEP: Step-2
** 
*Step, name=Step-2, nlgeom=YES
***Dynamic, Explicit
*Dynamic Temperature-displacement, Explicit
	, 1
*Bulk Viscosity
	0.6, 1.2
** 
** BOUNDARY CONDITIONS
** 
** Name: BC-2 Type: Displacement/Rotation
*Boundary, amplitude=Amp-1
	node_ref, 2, 2, 1
** 
** OUTPUT REQUESTS
** 
*Restart, write, number interval=1, time marks=NO
** 
** FIELD OUTPUT: F-Output-1
** 
*Output, field, time interval=1.0
*Node Output
	NT, U, RF
*Element Output, directions=YES
	FV, HFL, LE, PE, PEEQ, PEEQVAVG, PEVAVG, S, SDV, TEMP
** 
** HISTORY OUTPUT: H-Output-1
** 
*Output, history, variable=PRESELECT,time interval=1.0
*End Step
**  ----------------------------------------------------------  **
** 
** STEP: Step-3
** 
*Step, name=Step-3, nlgeom=YES
***Dynamic, Explicit
*Dynamic Temperature-displacement, Explicit
	, 5
*Bulk Viscosity
	0.6, 1.2
** 
** BOUNDARY CONDITIONS
** 
** Name: BC-2 Type: Displacement/Rotation
*Boundary, amplitude=Amp-2
	node_ref, 2, 2, 1
** 
** OUTPUT REQUESTS
** 
*Restart, write, number interval=1, time marks=NO
** 
** FIELD OUTPUT: F-Output-1
** 
*Output, field, time interval=1.0
*Node Output
	NT, U, RF
*Element Output, directions=YES
	FV, HFL, LE, PE, PEEQ, PEEQVAVG, PEVAVG, S, SDV, TEMP
** 
** HISTORY OUTPUT: H-Output-1
** 
*Output, history, variable=PRESELECT,time interval=1.0
*End Step
**  ----------------------------------------------------------  **
** 
** STEP: Step-4
** 
*Step, name=Step-4, nlgeom=YES
***Dynamic, Explicit
*Dynamic Temperature-displacement, Explicit
	, 10
*Bulk Viscosity
	0.6, 1.2
** 
** BOUNDARY CONDITIONS
** 
** Name: BC-2 Type: Displacement/Rotation
*Boundary, amplitude=Amp-3
	node_ref, 2, 2, 1
** 
** OUTPUT REQUESTS
** 
*Restart, write, number interval=1, time marks=NO
** 
** FIELD OUTPUT: F-Output-1
** 
*Output, field, time interval=1.0
*Node Output
	NT, U, RF
*Element Output, directions=YES
	FV, HFL, LE, PE, PEEQ, PEEQVAVG, PEVAVG, S, SDV, TEMP
** 
** HISTORY OUTPUT: H-Output-1
** 
*Output, history, variable=PRESELECT,time interval=1.0
*End Step
**  ----------------------------------------------------------  **
** 
** STEP: Step-5
** 
*Step, name=Step-5, nlgeom=YES
***Dynamic, Explicit
*Dynamic Temperature-displacement, Explicit
	, 20
*Bulk Viscosity
	0.6, 1.2
** 
** BOUNDARY CONDITIONS
** 
** Name: BC-2 Type: Displacement/Rotation
*Boundary, amplitude=Amp-4
	node_ref, 2, 2, 1
** 
** OUTPUT REQUESTS
** 
*Restart, write, number interval=1, time marks=NO
** 
** FIELD OUTPUT: F-Output-1
** 
*Output, field, time interval=1.0
*Node Output
	NT, U, RF
*Element Output, directions=YES
	FV, HFL, LE, PE, PEEQ, PEEQVAVG, PEVAVG, S, SDV, TEMP
** 
** HISTORY OUTPUT: H-Output-1
** 
*Output, history, variable=PRESELECT,time interval=1.0
*End Step