*Heading
*Preprint, echo=NO, model=NO, history=NO, contact=NO
**  ----------------------------------------------------------  **
*Node, nset=node_all
1	,	-100.4592502	,	-288.9973647
2	,	-21.66172286	,	-156.5050439
3	,	44.07636203	,	-203.0092982
4	,	167.5595996	,	-276.2782854
5	,	-61.58337884	,	-184.5883429
6	,	175.9784627	,	-121.6640194
7	,	-156.4888068	,	-125.9700946
8	,	58.71373143	,	-133.7530767
9	,	-124.0909549	,	-172.3718759
10	,	-165.8355661	,	-207.1721367
11	,	-74.30042141	,	-211.2374148
12	,	2.103977653	,	-166.6003406
13	,	-182.2306075	,	-110.4299396
14	,	-100.8455283	,	-151.7187628
15	,	-170.8515451	,	-248.5606539
16	,	148.3924105	,	-144.8513789
17	,	-28.41894435	,	-302.5328771
18	,	-168.7414979	,	-305.6771806
19	,	-94.25086199	,	-260.0759245
20	,	142.711434	,	-210.1169454
** ... 17167 like lines cut
**  ----------------------------------------------------------  **
*Element,Type=T3D2, elset=truss
1	,	1	,	368
2	,	1	,	1102
3	,	1	,	1674
4	,	1	,	2225
5	,	1	,	3165
6	,	1	,	3357
7	,	1	,	3361
8	,	2	,	103
9	,	2	,	479
10	,	2	,	752
11	,	2	,	1112
12	,	2	,	2409
13	,	2	,	3324
14	,	3	,	280
15	,	3	,	1534
16	,	3	,	1737
17	,	3	,	1767
18	,	3	,	2232
19	,	3	,	2738
20	,	4	,	1542
** ... 34598 like lines cut
**  ----------------------------------------------------------  **
*User Element, Nodes=2, Type=VU2, Properties=5, Coordinates=2, Variables=20
	1, 2, 11
*Element, Type=VU2
100001	,	1	,	368
100002	,	1	,	1102
100003	,	1	,	1674
100004	,	1	,	2225
100005	,	1	,	3165
100006	,	1	,	3357
100007	,	1	,	3361
100008	,	2	,	103
100009	,	2	,	479
100010	,	2	,	752
100011	,	2	,	1112
100012	,	2	,	2409
100013	,	2	,	3324
100014	,	3	,	280
100015	,	3	,	1534
100016	,	3	,	1737
100017	,	3	,	1767
100018	,	3	,	2232
100019	,	3	,	2738
100020	,	4	,	1542
** ... 34598 like lines cut
**  ----------------------------------------------------------  ** 
*Elset, elset=fracture, generate
	108267, 126446, 1
*Elset, elset=utruss, generate
	100001, 108266, 1
	126447, 134618, 1
**  ----------------------------------------------------------  ** 
*Uel Property, Elset=fracture
	30000, 3.0, 0.01, 3, 1
*Uel Property, Elset=utruss
	30000, 400, 0.025, 3, 2
** <ES>, <FT>, <GF>, <LB>
**  ----------------------------------------------------------  **  
** Section: Section-1
*Solid Section, elset=truss, material=truss
	1
**  ----------------------------------------------------------  **
*Material, name=truss
*Density
	1e-4
*Depvar, delete=16
     16,
     1,  E_Total, "total strain"
     11, PHI_A, "Phi plus (Model A)"
     14, H, "History variable"
     15, d, "phase field variable"
*User Defined Field
*User Material, constants=3
	30000,  3.8,  0.01, 10.0
** ea, ft, gf, lb
**  ----------------------------------------------------------  **
**
** PREDEFINED FIELDS
** 
** Name: Predefined Field-1   Type: Void ratio
*Initial Conditions, type=field, variable=1
	node_all, 0.0
**  ----------------------------------------------------------  **	
** 
**
**  ----------------------------------------------------------  **
*Nset, nset=bottom
   17,   22,   47,   51,   76,  129,  174,  178,  196,  198,  245,  246,  252,  320,  325,  344
  403,  413,  492,  548,  643,  644,  647,  659,  676,  678,  702,  709,  750,  778,  813,  854
  959, 1020, 1046, 1121, 1126, 1134, 1161, 1173, 1185, 1207, 1231, 1259, 1270, 1296, 1362, 1379
 1380, 1473, 1481, 1548, 1554, 1564, 1565, 1623, 1643, 1696, 1760, 1825, 1837, 1840, 1842, 1844
 1947, 2061, 2085, 2105, 2127, 2154, 2158, 2180, 2217, 2289, 2349, 2387, 2452, 2475, 2480, 2580
 2657, 2669, 2679, 2718, 2733, 2742, 2749, 2764, 2773, 2796, 2836, 2869, 2890, 2905, 2939, 2966
 3016, 3059, 3070, 3072, 3083, 3123, 3162, 3176, 3188, 3233, 3238, 3254, 3292, 3350, 3370, 3373
*Nset, nset=top
 13835, 13864, 13911, 13922, 14112, 14129, 14228, 14233, 14336, 14347, 14416, 14423, 14535, 14606, 14691, 14774
 14781, 15050, 15296, 15334, 15407, 15438, 15567, 15680, 15807, 15886, 15890, 15909, 15952, 15978, 16004, 16117
 16203, 16220, 16438, 16549, 16619, 16683, 16719, 16793, 16818, 16834, 16917, 16976, 16984, 17065, 17072, 17135
**  ----------------------------------------------------------  **
*Node
	100001, 0, 500
*Nset, nset=node_ref
	100001
*MPC
	BEAM, top, node_ref
**  ----------------------------------------------------------  **
*Amplitude, name=Amp-1
             0.,              0.,            1,              0.01
*Amplitude, name=Amp-2
             0.,             0.01,           5,              0.05
*Amplitude, name=Amp-3
             0.,             0.05,           10,             0.1
*Amplitude, name=Amp-4
             0.,             0.1,            20,             0.2
**  ----------------------------------------------------------  **
*Boundary
bottom, 1, 1
bottom, 2, 2
bottom, 3, 3
node_ref, 1, 1
**top, 3, 3
**  ----------------------------------------------------------  **
** 
** STEP: Step-1
** 
*Step, name=Step-1, nlgeom=YES
***Dynamic, Explicit
*Dynamic Temperature-displacement, Explicit
	, 0.001
*Bulk Viscosity
	0.6, 1.2
** 
** BOUNDARY CONDITIONS
** 
** OUTPUT REQUESTS
** 
*Restart, write, number interval=1, time marks=NO
** 
** FIELD OUTPUT: F-Output-1
** 
*Output, field, time interval=0.001
*Node Output
	NT, U, RF
*Element Output, directions=YES
	FV, HFL, LE, PE, PEEQ, PEEQVAVG, PEVAVG, S, SDV, TEMP
** 
** HISTORY OUTPUT: H-Output-1
** 
*Output, history, variable=PRESELECT,time interval=0.001
*End Step
**  ----------------------------------------------------------  **
** 
** STEP: Step-2
** 
*Step, name=Step-2, nlgeom=YES
***Dynamic, Explicit
*Dynamic Temperature-displacement, Explicit
	, 1
*Bulk Viscosity
	0.6, 1.2
** 
** BOUNDARY CONDITIONS
** 
** Name: BC-2 Type: Displacement/Rotation
*Boundary, amplitude=Amp-1
	node_ref, 2, 2, 1
** 
** OUTPUT REQUESTS
** 
*Restart, write, number interval=1, time marks=NO
** 
** FIELD OUTPUT: F-Output-1
** 
*Output, field, time interval=1.0
*Node Output
	NT, U, RF
*Element Output, directions=YES
	FV, HFL, LE, PE, PEEQ, PEEQVAVG, PEVAVG, S, SDV, TEMP
** 
** HISTORY OUTPUT: H-Output-1
** 
*Output, history, variable=PRESELECT,time interval=1.0
*End Step
**  ----------------------------------------------------------  **
** 
** STEP: Step-3
** 
*Step, name=Step-3, nlgeom=YES
***Dynamic, Explicit
*Dynamic Temperature-displacement, Explicit
	, 5
*Bulk Viscosity
	0.6, 1.2
** 
** BOUNDARY CONDITIONS
** 
** Name: BC-2 Type: Displacement/Rotation
*Boundary, amplitude=Amp-2
	node_ref, 2, 2, 1
** 
** OUTPUT REQUESTS
** 
*Restart, write, number interval=1, time marks=NO
** 
** FIELD OUTPUT: F-Output-1
** 
*Output, field, time interval=1.0
*Node Output
	NT, U, RF
*Element Output, directions=YES
	FV, HFL, LE, PE, PEEQ, PEEQVAVG, PEVAVG, S, SDV, TEMP
** 
** HISTORY OUTPUT: H-Output-1
** 
*Output, history, variable=PRESELECT,time interval=1.0
*End Step
**  ----------------------------------------------------------  **
** 
** STEP: Step-4
** 
*Step, name=Step-4, nlgeom=YES
***Dynamic, Explicit
*Dynamic Temperature-displacement, Explicit
	, 10
*Bulk Viscosity
	0.6, 1.2
** 
** BOUNDARY CONDITIONS
** 
** Name: BC-2 Type: Displacement/Rotation
*Boundary, amplitude=Amp-3
	node_ref, 2, 2, 1
** 
** OUTPUT REQUESTS
** 
*Restart, write, number interval=1, time marks=NO
** 
** FIELD OUTPUT: F-Output-1
** 
*Output, field, time interval=1.0
*Node Output
	NT, U, RF
*Element Output, directions=YES
	FV, HFL, LE, PE, PEEQ, PEEQVAVG, PEVAVG, S, SDV, TEMP
** 
** HISTORY OUTPUT: H-Output-1
** 
*Output, history, variable=PRESELECT,time interval=1.0
*End Step
**  ----------------------------------------------------------  **
** 
** STEP: Step-5
** 
*Step, name=Step-5, nlgeom=YES
***Dynamic, Explicit
*Dynamic Temperature-displacement, Explicit
	, 20
*Bulk Viscosity
	0.6, 1.2
** 
** BOUNDARY CONDITIONS
** 
** Name: BC-2 Type: Displacement/Rotation
*Boundary, amplitude=Amp-4
	node_ref, 2, 2, 1
** 
** OUTPUT REQUESTS
** 
*Restart, write, number interval=1, time marks=NO
** 
** FIELD OUTPUT: F-Output-1
** 
*Output, field, time interval=1.0
*Node Output
	NT, U, RF
*Element Output, directions=YES
	FV, HFL, LE, PE, PEEQ, PEEQVAVG, PEVAVG, S, SDV, TEMP
** 
** HISTORY OUTPUT: H-Output-1
** 
*Output, history, variable=PRESELECT,time interval=1.0
*End Step