*Heading
*Preprint, echo=NO, model=NO, history=NO, contact=NO
**  ----------------------------------------------------------  **
*Node, nset=node_all
1	,	-14.98288835	,	-26.2235623
2	,	13.95419483	,	26.28261658
3	,	6.200488673	,	-25.38981352
4	,	-19.68105205	,	-5.274525967
5	,	-15.45106017	,	8.426287443
6	,	11.89749583	,	-34.64690364
7	,	-24.62457988	,	37.32281645
8	,	-20.45959203	,	13.88957479
9	,	12.43825347	,	-2.145962976
10	,	23.07503818	,	1.635480463
11	,	-6.350167617	,	-17.22897434
12	,	-16.70023362	,	-38.30351717
13	,	9.939625219	,	7.565626068
14	,	24.61022375	,	24.152016
15	,	-14.1533316	,	-29.35046825
16	,	13.65068996	,	-33.11149277
17	,	9.697306925	,	-39.58792418
18	,	13.95500417	,	39.65828931
19	,	-13.49424558	,	15.68426727
20	,	27.99248576	,	-12.75680595
** ... 2463 like lines cut
**  ----------------------------------------------------------  **
*Element,Type=T3D2, elset=truss
1	,	1	,	539
2	,	1	,	820
3	,	1	,	944
4	,	1	,	1525
5	,	1	,	2252
6	,	1	,	2328
7	,	2	,	226
8	,	2	,	339
9	,	2	,	630
10	,	2	,	816
11	,	2	,	2235
12	,	2	,	2427
13	,	3	,	108
14	,	3	,	808
15	,	3	,	1095
16	,	3	,	1103
17	,	3	,	2209
18	,	5	,	288
19	,	5	,	1237
20	,	5	,	1356
** ... 5014 like lines cut
**  ----------------------------------------------------------  **
*User Element, Nodes=2, Type=VU2, Properties=4, Coordinates=2, Variables=20
	1, 2, 11
*Element, Type=VU2
10001	,	1	,	539
10002	,	1	,	820
10003	,	1	,	944
10004	,	1	,	1525
10005	,	1	,	2252
10006	,	1	,	2328
10007	,	2	,	226
10008	,	2	,	339
10009	,	2	,	630
10010	,	2	,	816
10011	,	2	,	2235
10012	,	2	,	2427
10013	,	3	,	108
10014	,	3	,	808
10015	,	3	,	1095
10016	,	3	,	1103
10017	,	3	,	2209
10018	,	5	,	288
10019	,	5	,	1237
10020	,	5	,	1356
** ... 5014 like lines cut
**  ----------------------------------------------------------  ** 
*Elset, elset=fracture
10018	,	10019	,	10020	,	10033	,	10034	,	10035	,	10036	,	10037	,	10038	,	10039	,	10040	,	10041	,	10042	,	10043	,	10044	,	10049
10050	,	10051	,	10052	,	10053	,	10069	,	10070	,	10071	,	10072	,	10073	,	10074	,	10075	,	10082	,	10083	,	10084	,	10085	,	10086
10087	,	10088	,	10089	,	10090	,	10091	,	10092	,	10110	,	10111	,	10112	,	10113	,	10114	,	10115	,	10116	,	10117	,	10118	,	10119
10120	,	10121	,	10122	,	10123	,	10124	,	10125	,	10126	,	10127	,	10128	,	10136	,	10138	,	10147	,	10148	,	10149	,	10150	,	10151
10152	,	10166	,	10167	,	10168	,	10169	,	10170	,	10171	,	10172	,	10173	,	10174	,	10175	,	10176	,	10177	,	10178	,	10179	,	10180
10181	,	10182	,	10183	,	10184	,	10208	,	10209	,	10210	,	10211	,	10212	,	10213	,	10214	,	10215	,	10216	,	10217	,	10218	,	10219
10228	,	10232	,	10233	,	10248	,	10249	,	10250	,	10251	,	10252	,	10253	,	10254	,	10255	,	10256	,	10257	,	10258	,	10259	,	10260
10261	,	10262	,	10263	,	10280	,	10281	,	10282	,	10283	,	10284	,	10285	,	10286	,	10287	,	10288	,	10289	,	10290	,	10291	,	10292
10293	,	10294	,	10301	,	10302	,	10303	,	10304	,	10305	,	10306	,	10307	,	10311	,	10312	,	10313	,	10314	,	10315	,	10316	,	10317
10318	,	10319	,	10320	,	10341	,	10342	,	10343	,	10344	,	10345	,	10346	,	10347	,	10348	,	10349	,	10350	,	10351	,	10352	,	10353
10356	,	10364	,	10365	,	10366	,	10367	,	10368	,	10375	,	10376	,	10377	,	10378	,	10379	,	10386	,	10387	,	10388	,	10389	,	10390
10391	,	10409	,	10410	,	10411	,	10412	,	10413	,	10414	,	10434	,	10435	,	10436	,	10437	,	10438	,	10439	,	10447	,	10448	,	10449
10450	,	10451	,	10452	,	10457	,	10458	,	10459	,	10460	,	10461	,	10462	,	10469	,	10470	,	10471	,	10472	,	10473	,	10474	,	10475
10476	,	10477	,	10478	,	10479	,	10480	,	10481	,	10482	,	10501	,	10502	,	10503	,	10504	,	10505	,	10506	,	10507	,	10508	,	10509
10510	,	10518	,	10519	,	10520	,	10521	,	10522	,	10523	,	10524	,	10525	,	10526	,	10527	,	10528	,	10529	,	10530	,	10531	,	10532
10539	,	10540	,	10541	,	10542	,	10543	,	10544	,	10545	,	10546	,	10547	,	10548	,	10568	,	10569	,	10570	,	10571	,	10572	,	10573
10574	,	10575	,	10576	,	10577	,	10578	,	10579	,	10580	,	10581	,	10582	,	10583	,	10584	,	10585	,	10589	,	10590	,	10591	,	10592
10593	,	10613	,	10614	,	10615	,	10616	,	10619	,	10645	,	10646	,	10647	,	10652	,	10653	,	10654	,	10655	,	10656	,	10671	,	10672
10673	,	10674	,	10675	,	10676	,	10680	,	10681	,	10682	,	10683	,	10693	,	10709	,	10710	,	10711	,	10712	,	10713	,	10714	,	10715
10716	,	10717	,	10718	,	10719	,	10720	,	10721	,	10722	,	10723	,	10724	,	10731	,	10732	,	10733	,	10734	,	10735	,	10736	,	10737
** ... 105 like lines cut
*Elset, elset=utruss
10001	,	10002	,	10003	,	10004	,	10005	,	10006	,	10007	,	10008	,	10009	,	10010	,	10011	,	10012	,	10013	,	10014	,	10015	,	10016
10017	,	10021	,	10022	,	10023	,	10024	,	10025	,	10026	,	10027	,	10028	,	10029	,	10030	,	10031	,	10032	,	10045	,	10046	,	10047
10048	,	10054	,	10055	,	10056	,	10057	,	10058	,	10059	,	10060	,	10061	,	10062	,	10063	,	10064	,	10065	,	10066	,	10067	,	10068
10076	,	10077	,	10078	,	10079	,	10080	,	10081	,	10093	,	10094	,	10095	,	10096	,	10097	,	10098	,	10099	,	10100	,	10101	,	10102
10103	,	10104	,	10105	,	10106	,	10107	,	10108	,	10109	,	10129	,	10130	,	10131	,	10132	,	10133	,	10134	,	10135	,	10137	,	10139
10140	,	10141	,	10142	,	10143	,	10144	,	10145	,	10146	,	10153	,	10154	,	10155	,	10156	,	10157	,	10158	,	10159	,	10160	,	10161
10162	,	10163	,	10164	,	10165	,	10185	,	10186	,	10187	,	10188	,	10189	,	10190	,	10191	,	10192	,	10193	,	10194	,	10195	,	10196
10197	,	10198	,	10199	,	10200	,	10201	,	10202	,	10203	,	10204	,	10205	,	10206	,	10207	,	10220	,	10221	,	10222	,	10223	,	10224
10225	,	10226	,	10227	,	10229	,	10230	,	10231	,	10234	,	10235	,	10236	,	10237	,	10238	,	10239	,	10240	,	10241	,	10242	,	10243
10244	,	10245	,	10246	,	10247	,	10264	,	10265	,	10266	,	10267	,	10268	,	10269	,	10270	,	10271	,	10272	,	10273	,	10274	,	10275
10276	,	10277	,	10278	,	10279	,	10295	,	10296	,	10297	,	10298	,	10299	,	10300	,	10308	,	10309	,	10310	,	10321	,	10322	,	10323
10324	,	10325	,	10326	,	10327	,	10328	,	10329	,	10330	,	10331	,	10332	,	10333	,	10334	,	10335	,	10336	,	10337	,	10338	,	10339
10340	,	10354	,	10355	,	10357	,	10358	,	10359	,	10360	,	10361	,	10362	,	10363	,	10369	,	10370	,	10371	,	10372	,	10373	,	10374
10380	,	10381	,	10382	,	10383	,	10384	,	10385	,	10392	,	10393	,	10394	,	10395	,	10396	,	10397	,	10398	,	10399	,	10400	,	10401
10402	,	10403	,	10404	,	10405	,	10406	,	10407	,	10408	,	10415	,	10416	,	10417	,	10418	,	10419	,	10420	,	10421	,	10422	,	10423
10424	,	10425	,	10426	,	10427	,	10428	,	10429	,	10430	,	10431	,	10432	,	10433	,	10440	,	10441	,	10442	,	10443	,	10444	,	10445
10446	,	10453	,	10454	,	10455	,	10456	,	10463	,	10464	,	10465	,	10466	,	10467	,	10468	,	10483	,	10484	,	10485	,	10486	,	10487
10488	,	10489	,	10490	,	10491	,	10492	,	10493	,	10494	,	10495	,	10496	,	10497	,	10498	,	10499	,	10500	,	10511	,	10512	,	10513
10514	,	10515	,	10516	,	10517	,	10533	,	10534	,	10535	,	10536	,	10537	,	10538	,	10549	,	10550	,	10551	,	10552	,	10553	,	10554
10555	,	10556	,	10557	,	10558	,	10559	,	10560	,	10561	,	10562	,	10563	,	10564	,	10565	,	10566	,	10567	,	10586	,	10587	,	10588
** ... 170 like lines cut
**  ----------------------------------------------------------  ** 
*Uel Property, Elset=fracture
	30000, 3.4, 0.01, 2, 1
*Uel Property, Elset=utruss
	30000, 400, 0.025, 2, 2
** <ES>, <FT>, <GF>, <LB>
**  ----------------------------------------------------------  **  
** Section: Section-1
*Solid Section, elset=truss, material=truss
	1
**  ----------------------------------------------------------  **
*Material, name=truss
*Density
	1e-4
*Depvar, delete=16
     16,
     1,  E_Total, "total strain"
     11, PHI_A, "Phi plus (Model A)"
     14, H, "History variable"
     15, d, "phase field variable"
*User Defined Field
*User Material, constants=3
	30000,  3.8,  0.01, 10.0
** ea, ft, gf, lb
**  ----------------------------------------------------------  **
**
** PREDEFINED FIELDS
** 
** Name: Predefined Field-1   Type: Void ratio
*Initial Conditions, type=field, variable=1
	node_all, 0.0
**  ----------------------------------------------------------  **	
** 
**
**  ----------------------------------------------------------  **
*Nset, nset=bottom
   12,   29,   81,  128,  419,  460,  530,  646,  662,  679,  717,  928,  949, 1023, 1032, 1078
 1136, 1156, 1256, 1377, 1419, 1466, 1468, 1542, 1589, 1605, 1619, 1624, 1628, 1726, 1730, 1763
 1884, 1905, 1969, 1996, 2046, 2097, 2172, 2227, 2269, 2297, 2327, 2392, 2413, 2423, 2468
*Nset, nset=top
    7,   68,  275,  293,  384,  396,  426,  497,  633,  696,  796,  804,  813,  945,  967,  969
  972,  985, 1031, 1118, 1127, 1137, 1166, 1209, 1298, 1328, 1334, 1346, 1372, 1450, 1607, 1778
 2016, 2034, 2082, 2130, 2218, 2230, 2277, 2284, 2396, 2447
**  ----------------------------------------------------------  **
*Node
	10001, 0, 500
*Nset, nset=node_ref
	10001
*MPC
	BEAM, top, node_ref
**  ----------------------------------------------------------  **
*Amplitude, name=Amp-1
             0.,              0.,            1,              0.005
*Amplitude, name=Amp-2
             0.,             0.005,           5,              0.017
*Amplitude, name=Amp-3
             0.,             0.017,           10,             0.025
*Amplitude, name=Amp-4
             0.,             0.025,            20,             0.1
**  ----------------------------------------------------------  **
*Boundary
bottom, 1, 1
bottom, 2, 2
bottom, 3, 3
node_ref, 1, 1
**top, 3, 3
**  ----------------------------------------------------------  **
** 
** STEP: Step-1
** 
*Step, name=Step-1, nlgeom=YES
***Dynamic, Explicit
*Dynamic Temperature-displacement, Explicit
	, 0.001
*Bulk Viscosity
	0.6, 1.2
** 
** BOUNDARY CONDITIONS
** 
** OUTPUT REQUESTS
** 
*Restart, write, number interval=1, time marks=NO
** 
** FIELD OUTPUT: F-Output-1
** 
*Output, field, time interval=0.001
*Node Output
	NT, U, RF
*Element Output, directions=YES
	FV, HFL, LE, PE, PEEQ, PEEQVAVG, PEVAVG, S, SDV, TEMP
** 
** HISTORY OUTPUT: H-Output-1
** 
*Output, history, variable=PRESELECT,time interval=0.001
*End Step
**  ----------------------------------------------------------  **
** 
** STEP: Step-2
** 
*Step, name=Step-2, nlgeom=YES
***Dynamic, Explicit
*Dynamic Temperature-displacement, Explicit
	, 1
*Bulk Viscosity
	0.6, 1.2
** 
** BOUNDARY CONDITIONS
** 
** Name: BC-2 Type: Displacement/Rotation
*Boundary, amplitude=Amp-1
	node_ref, 2, 2, 1
** 
** OUTPUT REQUESTS
** 
*Restart, write, number interval=1, time marks=NO
** 
** FIELD OUTPUT: F-Output-1
** 
*Output, field, time interval=1.0
*Node Output
	NT, U, RF
*Element Output, directions=YES
	FV, HFL, LE, PE, PEEQ, PEEQVAVG, PEVAVG, S, SDV, TEMP
** 
** HISTORY OUTPUT: H-Output-1
** 
*Output, history, variable=PRESELECT,time interval=1.0
*End Step
**  ----------------------------------------------------------  **
** 
** STEP: Step-3
** 
*Step, name=Step-3, nlgeom=YES
***Dynamic, Explicit
*Dynamic Temperature-displacement, Explicit
	, 5
*Bulk Viscosity
	0.6, 1.2
** 
** BOUNDARY CONDITIONS
** 
** Name: BC-2 Type: Displacement/Rotation
*Boundary, amplitude=Amp-2
	node_ref, 2, 2, 1
** 
** OUTPUT REQUESTS
** 
*Restart, write, number interval=1, time marks=NO
** 
** FIELD OUTPUT: F-Output-1
** 
*Output, field, time interval=1.0
*Node Output
	NT, U, RF
*Element Output, directions=YES
	FV, HFL, LE, PE, PEEQ, PEEQVAVG, PEVAVG, S, SDV, TEMP
** 
** HISTORY OUTPUT: H-Output-1
** 
*Output, history, variable=PRESELECT,time interval=1.0
*End Step
**  ----------------------------------------------------------  **
** 
** STEP: Step-4
** 
*Step, name=Step-4, nlgeom=YES
***Dynamic, Explicit
*Dynamic Temperature-displacement, Explicit
	, 10
*Bulk Viscosity
	0.6, 1.2
** 
** BOUNDARY CONDITIONS
** 
** Name: BC-2 Type: Displacement/Rotation
*Boundary, amplitude=Amp-3
	node_ref, 2, 2, 1
** 
** OUTPUT REQUESTS
** 
*Restart, write, number interval=1, time marks=NO
** 
** FIELD OUTPUT: F-Output-1
** 
*Output, field, time interval=1.0
*Node Output
	NT, U, RF
*Element Output, directions=YES
	FV, HFL, LE, PE, PEEQ, PEEQVAVG, PEVAVG, S, SDV, TEMP
** 
** HISTORY OUTPUT: H-Output-1
** 
*Output, history, variable=PRESELECT,time interval=1.0
*End Step
**  ----------------------------------------------------------  **
** 
** STEP: Step-5
** 
*Step, name=Step-5, nlgeom=YES
***Dynamic, Explicit
*Dynamic Temperature-displacement, Explicit
	, 20
*Bulk Viscosity
	0.6, 1.2
** 
** BOUNDARY CONDITIONS
** 
** Name: BC-2 Type: Displacement/Rotation
*Boundary, amplitude=Amp-4
	node_ref, 2, 2, 1
** 
** OUTPUT REQUESTS
** 
*Restart, write, number interval=1, time marks=NO
** 
** FIELD OUTPUT: F-Output-1
** 
*Output, field, time interval=1.0
*Node Output
	NT, U, RF
*Element Output, directions=YES
	FV, HFL, LE, PE, PEEQ, PEEQVAVG, PEVAVG, S, SDV, TEMP
** 
** HISTORY OUTPUT: H-Output-1
** 
*Output, history, variable=PRESELECT,time interval=1.0
*End Step